.model PMOS PMOS VTO=-0.5 KP=200u W=2u L=100n
