.model MNINV1 NMOS KP=500u VTO=0.6 W=2.59u L=0.35u
