* PSpice Model Editor - Version 17.2.0
*$
.model NMOSclock NMOS KP=500u VTO=0.6 W=7.7u L=0.35u
*$
.model NMOSInv NMOS KP=500u VTO=0.6 W=2.59u L=0.35u
*$
.model PMOSInv PMOS KP=250u VTO=-0.6 W=5.18u L=0.35u
*$
