* PSpice Model Editor - Version 17.2.0
*$
.model MNINV1 NMOS KP=500u VTO=0.6 W=2.59u L=0.35u
*$
.model MPINV1 PMOS KP=250u VTO=-0.6 W=5.18u L=0.35u
*$
